Circuit: * C:\Users\mdelrosario\Dropbox\VLSI_Project\CMFBTest.asc

Warning: Multiple definitions of model "fdms3615sq2" Type: Vdmos1
WARNING: Node X1:NC_01 is floating.

WARNING: Less than two connections to node X1:NC_01.  This node is used by M:X1:3.
Direct Newton iteration failed to find .op point.  (Use ".option noopiter" to skip.)
Starting Gmin stepping
Gmin = 10
Gmin = 1.07374
Gmin = 0.115292
Gmin = 0.0123794
Gmin = 0.00132923
Gmin = 0.000142725
Gmin = 1.5325e-005
Gmin = 1.6455e-006
Gmin = 1.76685e-007
Gmin = 1.89714e-008
Gmin = 2.03704e-009
Gmin = 2.18725e-010
Gmin = 2.34854e-011
Gmin = 2.52173e-012
Gmin = 2.70769e-013
Gmin = 0
Gmin stepping succeeded in finding the operating point.


Date: Mon Nov 17 12:00:33 2014
Total elapsed time: 0.743 seconds.

tnom = 27
temp = 27
method = modified trap
totiter = 3611
traniter = 3155
tranpoints = 1047
accept = 1045
rejected = 2
matrix size = 19
fillins = 10
solver = Normal
Matrix Compiler1: 1.89 KB object code size  1.4/0.8/[0.5]
Matrix Compiler2: off  [0.8]/1.3/2.4


