Circuit: * C:\Users\mdelrosario\Dropbox\VLSI_Project\Draft1.asc

Warning: Multiple definitions of model "fdms3615sq2" Type: Vdmos1
.step vcmi=2
.step vcmi=2.2
.step vcmi=2.4
.step vcmi=2.6
.step vcmi=2.8
.step vcmi=3

Date: Thu Nov 20 17:02:32 2014
Total elapsed time: 0.555 seconds.

tnom = 27
temp = 27
method = trap
totiter = 2044
traniter = 0
tranpoints = 0
accept = 0
rejected = 0
matrix size = 19
fillins = 9
solver = Normal
Matrix Compiler1: 1.98 KB object code size  0.7/0.2/[0.1]
Matrix Compiler2: 2.00 KB object code size  0.3/0.2/[0.1]


