Circuit: * C:\Users\akeum\Dropbox\VLSI_Project\FullPTATTest.asc

Limiting rise time of source v5 to 5e-006
Limiting fall time of source v5 to 5e-006
Limiting rise time of source v4 to 5e-006
Limiting fall time of source v4 to 5e-006
Instance "m:x3:11": Length shorter than recommended for a level 1 MOSFET.
Instance "m:x3:11": Width narrower than recommended for a level 1 MOSFET.
Instance "m:x3:10": Length shorter than recommended for a level 1 MOSFET.
Instance "m:x3:10": Width narrower than recommended for a level 1 MOSFET.
Instance "m:x3:7": Length shorter than recommended for a level 1 MOSFET.
Instance "m:x3:7": Width narrower than recommended for a level 1 MOSFET.
Instance "m:x3:2": Length shorter than recommended for a level 1 MOSFET.
Instance "m:x3:2": Width narrower than recommended for a level 1 MOSFET.
Instance "m:x3:x2:1": Length shorter than recommended for a level 1 MOSFET.
Instance "m:x3:x2:1": Width narrower than recommended for a level 1 MOSFET.
Instance "m:x3:x1:1": Length shorter than recommended for a level 1 MOSFET.
Instance "m:x3:x1:1": Width narrower than recommended for a level 1 MOSFET.
Instance "m:x3:15": Length shorter than recommended for a level 1 MOSFET.
Instance "m:x3:15": Width narrower than recommended for a level 1 MOSFET.
Instance "m:x3:14": Length shorter than recommended for a level 1 MOSFET.
Instance "m:x3:14": Width narrower than recommended for a level 1 MOSFET.
Instance "m:x3:13": Length shorter than recommended for a level 1 MOSFET.
Instance "m:x3:13": Width narrower than recommended for a level 1 MOSFET.
Instance "m:x3:9": Length shorter than recommended for a level 1 MOSFET.
Instance "m:x3:9": Width narrower than recommended for a level 1 MOSFET.
Instance "m:x3:8": Length shorter than recommended for a level 1 MOSFET.
Instance "m:x3:8": Width narrower than recommended for a level 1 MOSFET.
Instance "m:x3:6": Length shorter than recommended for a level 1 MOSFET.
Instance "m:x3:6": Width narrower than recommended for a level 1 MOSFET.
Instance "m:x3:5": Length shorter than recommended for a level 1 MOSFET.
Instance "m:x3:5": Width narrower than recommended for a level 1 MOSFET.
Instance "m:x3:4": Length shorter than recommended for a level 1 MOSFET.
Instance "m:x3:4": Width narrower than recommended for a level 1 MOSFET.
Instance "m:x3:3": Length shorter than recommended for a level 1 MOSFET.
Instance "m:x3:3": Width narrower than recommended for a level 1 MOSFET.
Instance "m:x3:1": Length shorter than recommended for a level 1 MOSFET.
Instance "m:x3:1": Width narrower than recommended for a level 1 MOSFET.
Instance "m:x1:16": Length shorter than recommended for a level 1 MOSFET.
Instance "m:x1:16": Width narrower than recommended for a level 1 MOSFET.
Instance "m:x1:15": Length shorter than recommended for a level 1 MOSFET.
Instance "m:x1:15": Width narrower than recommended for a level 1 MOSFET.
Instance "m:x1:13": Length shorter than recommended for a level 1 MOSFET.
Instance "m:x1:13": Width narrower than recommended for a level 1 MOSFET.
Instance "m:x1:12": Length shorter than recommended for a level 1 MOSFET.
Instance "m:x1:12": Width narrower than recommended for a level 1 MOSFET.
Instance "m:x1:11": Length shorter than recommended for a level 1 MOSFET.
Instance "m:x1:11": Width narrower than recommended for a level 1 MOSFET.
Instance "m:x1:10": Length shorter than recommended for a level 1 MOSFET.
Instance "m:x1:10": Width narrower than recommended for a level 1 MOSFET.
Instance "m:x1:7": Length shorter than recommended for a level 1 MOSFET.
Instance "m:x1:7": Width narrower than recommended for a level 1 MOSFET.
Instance "m:x1:6": Length shorter than recommended for a level 1 MOSFET.
Instance "m:x1:6": Width narrower than recommended for a level 1 MOSFET.
Instance "m:x1:5": Length shorter than recommended for a level 1 MOSFET.
Instance "m:x1:5": Width narrower than recommended for a level 1 MOSFET.
Instance "m:x1:4": Length shorter than recommended for a level 1 MOSFET.
Instance "m:x1:4": Width narrower than recommended for a level 1 MOSFET.
Instance "m:x3:x2:2": Length shorter than recommended for a level 1 MOSFET.
Instance "m:x3:x2:2": Width narrower than recommended for a level 1 MOSFET.
Instance "m:x3:x1:2": Length shorter than recommended for a level 1 MOSFET.
Instance "m:x3:x1:2": Width narrower than recommended for a level 1 MOSFET.
Instance "m6": Length shorter than recommended for a level 1 MOSFET.
Instance "m6": Width narrower than recommended for a level 1 MOSFET.
Instance "m5": Length shorter than recommended for a level 1 MOSFET.
Instance "m5": Width narrower than recommended for a level 1 MOSFET.
Instance "m4": Length shorter than recommended for a level 1 MOSFET.
Instance "m4": Width narrower than recommended for a level 1 MOSFET.
Instance "m3": Length shorter than recommended for a level 1 MOSFET.
Instance "m3": Width narrower than recommended for a level 1 MOSFET.
Instance "m2": Length shorter than recommended for a level 1 MOSFET.
Instance "m2": Width narrower than recommended for a level 1 MOSFET.
Instance "m1": Length shorter than recommended for a level 1 MOSFET.
Instance "m1": Width narrower than recommended for a level 1 MOSFET.
Instance "m:x2:4": Length shorter than recommended for a level 1 MOSFET.
Instance "m:x2:4": Width narrower than recommended for a level 1 MOSFET.
Instance "m:x2:3": Length shorter than recommended for a level 1 MOSFET.
Instance "m:x2:3": Width narrower than recommended for a level 1 MOSFET.
Instance "m:x2:2": Length shorter than recommended for a level 1 MOSFET.
Instance "m:x2:2": Width narrower than recommended for a level 1 MOSFET.
Instance "m:x2:1": Length shorter than recommended for a level 1 MOSFET.
Instance "m:x2:1": Width narrower than recommended for a level 1 MOSFET.
Instance "m:x1:18": Length shorter than recommended for a level 1 MOSFET.
Instance "m:x1:18": Width narrower than recommended for a level 1 MOSFET.
Instance "m:x1:17": Length shorter than recommended for a level 1 MOSFET.
Instance "m:x1:17": Width narrower than recommended for a level 1 MOSFET.
Instance "m:x1:14": Length shorter than recommended for a level 1 MOSFET.
Instance "m:x1:14": Width narrower than recommended for a level 1 MOSFET.
Instance "m:x1:9": Length shorter than recommended for a level 1 MOSFET.
Instance "m:x1:9": Width narrower than recommended for a level 1 MOSFET.
Instance "m:x1:8": Length shorter than recommended for a level 1 MOSFET.
Instance "m:x1:8": Width narrower than recommended for a level 1 MOSFET.
Instance "m:x1:3": Length shorter than recommended for a level 1 MOSFET.
Instance "m:x1:3": Width narrower than recommended for a level 1 MOSFET.
Instance "m:x1:2": Length shorter than recommended for a level 1 MOSFET.
Instance "m:x1:2": Width narrower than recommended for a level 1 MOSFET.
Instance "m:x1:1": Length shorter than recommended for a level 1 MOSFET.
Instance "m:x1:1": Width narrower than recommended for a level 1 MOSFET.
Direct Newton iteration failed to find .op point.  (Use ".option noopiter" to skip.)
Starting Gmin stepping
Gmin = 10
Gmin = 1.07374
Gmin = 0.115292
Gmin = 0.0123794
Gmin = 0.00132923
Gmin = 0.000142725
Gmin = 1.5325e-005
Gmin = 1.6455e-006
Gmin = 1.76685e-007
Gmin = 1.89714e-008
Gmin = 2.03704e-009
Gmin = 2.18725e-010
Gmin = 2.34854e-011
Gmin = 2.52173e-012
Gmin = 2.70769e-013
Gmin = 0
Gmin stepping succeeded in finding the operating point.

.step temp=0°C
.step temp=10°C
.step temp=20°C
.step temp=30°C

Date: Sun Nov 30 21:48:21 2014
Total elapsed time: 1.948 seconds.

tnom = 27
temp = 30
method = modified trap
totiter = 4703
traniter = 2744
tranpoints = 1324
accept = 1246
rejected = 78
matrix size = 35
fillins = 32
solver = Normal
Thread vector: 20.8/10.9[4] 8.0/4.5[4] 5.1/2.4[4] 0.3/0.7[1]  2592/500
Matrix Compiler1: 5.25 KB object code size  1.3/0.6/[0.5]
Matrix Compiler2: off  [0.8]/1.0/0.8


