Circuit: * C:\Users\mdelrosario\Dropbox\VLSI_Project\PTATTest.asc

Warning: Multiple definitions of model "fdms3615sq2" Type: Vdmos1
Direct Newton iteration for .op point succeeded.
.step temp=0°C
.step temp=10°C
.step temp=20°C
.step temp=30°C
.step temp=40°C
.step temp=50°C
.step temp=60°C
.step temp=70°C
.step temp=80°C
.step temp=90°C
.step temp=100°C

Date: Sun Nov 16 23:11:24 2014
Total elapsed time: 12.094 seconds.

tnom = 27
temp = 100
method = modified trap
totiter = 15860
traniter = 8477
tranpoints = 3090
accept = 2559
rejected = 531
matrix size = 10
fillins = 2
solver = Normal
Matrix Compiler1: 560 bytes object code size  0.7/0.4/[0.2]
Matrix Compiler2: off  [0.4]/0.6/0.9


